<?xml version="1.0" encoding="UTF-8"?>

<net version="1.9" junctionCornerDetail="5" limitTurnSpeed="5.50" xmlns:xsi="http://www.w3.org/2001/XMLSchema-instance" xsi:noNamespaceSchemaLocation="http://sumo.dlr.de/xsd/net_file.xsd">

    <location netOffset="0.00,0.00" convBoundary="-300.00,-300.00,300.00,300.00" origBoundary="-10000000000.00,-10000000000.00,10000000000.00,10000000000.00" projParameter="!"/>

    <edge id=":intersection_0_0" function="internal">
        <lane id=":intersection_0_0_0" index="0" speed="13.89" length="14.40" shape="-101.60,107.20 -101.60,92.80"/>
    </edge>
    <edge id=":intersection_0_1" function="internal">
        <lane id=":intersection_0_1_0" index="0" speed="13.89" length="14.40" shape="-92.80,101.60 -107.20,101.60"/>
    </edge>
    <edge id=":intersection_0_2" function="internal">
        <lane id=":intersection_0_2_0" index="0" speed="13.89" length="14.40" shape="-98.40,92.80 -98.40,107.20"/>
    </edge>
    <edge id=":intersection_0_3" function="internal">
        <lane id=":intersection_0_3_0" index="0" speed="13.89" length="14.40" shape="-107.20,98.40 -92.80,98.40"/>
    </edge>
    <edge id=":intersection_1_0" function="internal">
        <lane id=":intersection_1_0_0" index="0" speed="13.89" length="14.40" shape="-101.60,-92.80 -101.60,-107.20"/>
    </edge>
    <edge id=":intersection_1_1" function="internal">
        <lane id=":intersection_1_1_0" index="0" speed="13.89" length="14.40" shape="-92.80,-98.40 -107.20,-98.40"/>
    </edge>
    <edge id=":intersection_1_2" function="internal">
        <lane id=":intersection_1_2_0" index="0" speed="13.89" length="14.40" shape="-98.40,-107.20 -98.40,-92.80"/>
    </edge>
    <edge id=":intersection_1_3" function="internal">
        <lane id=":intersection_1_3_0" index="0" speed="13.89" length="14.40" shape="-107.20,-101.60 -92.80,-101.60"/>
    </edge>
    <edge id=":intersection_2_0" function="internal">
        <lane id=":intersection_2_0_0" index="0" speed="13.89" length="14.40" shape="98.40,107.20 98.40,92.80"/>
    </edge>
    <edge id=":intersection_2_1" function="internal">
        <lane id=":intersection_2_1_0" index="0" speed="13.89" length="14.40" shape="107.20,101.60 92.80,101.60"/>
    </edge>
    <edge id=":intersection_2_2" function="internal">
        <lane id=":intersection_2_2_0" index="0" speed="13.89" length="14.40" shape="101.60,92.80 101.60,107.20"/>
    </edge>
    <edge id=":intersection_2_3" function="internal">
        <lane id=":intersection_2_3_0" index="0" speed="13.89" length="14.40" shape="92.80,98.40 107.20,98.40"/>
    </edge>
    <edge id=":intersection_3_0" function="internal">
        <lane id=":intersection_3_0_0" index="0" speed="13.89" length="14.40" shape="98.40,-92.80 98.40,-107.20"/>
    </edge>
    <edge id=":intersection_3_1" function="internal">
        <lane id=":intersection_3_1_0" index="0" speed="13.89" length="14.40" shape="107.20,-98.40 92.80,-98.40"/>
    </edge>
    <edge id=":intersection_3_2" function="internal">
        <lane id=":intersection_3_2_0" index="0" speed="13.89" length="14.40" shape="101.60,-107.20 101.60,-92.80"/>
    </edge>
    <edge id=":intersection_3_3" function="internal">
        <lane id=":intersection_3_3_0" index="0" speed="13.89" length="14.40" shape="92.80,-101.60 107.20,-101.60"/>
    </edge>

    <edge id="-E0" from="intersection_1" to="intersection_0" priority="-1">
        <lane id="-E0_0" index="0" speed="13.89" length="185.60" shape="-98.40,-92.80 -98.40,92.80"/>
    </edge>
    <edge id="-E1" from="intersection_2" to="intersection_3" priority="-1">
        <lane id="-E1_0" index="0" speed="13.89" length="185.60" shape="98.40,92.80 98.40,-92.80"/>
    </edge>
    <edge id="-E10" from="J10" to="intersection_3" priority="-1">
        <lane id="-E10_0" index="0" speed="13.89" length="192.80" shape="101.60,-300.00 101.60,-107.20"/>
    </edge>
    <edge id="-E11" from="J11" to="intersection_3" priority="-1">
        <lane id="-E11_0" index="0" speed="13.89" length="192.80" shape="300.00,-98.40 107.20,-98.40"/>
    </edge>
    <edge id="-E2" from="intersection_2" to="intersection_0" priority="-1">
        <lane id="-E2_0" index="0" speed="13.89" length="185.60" shape="92.80,101.60 -92.80,101.60"/>
    </edge>
    <edge id="-E3" from="intersection_3" to="intersection_1" priority="-1">
        <lane id="-E3_0" index="0" speed="13.89" length="185.60" shape="92.80,-98.40 -92.80,-98.40"/>
    </edge>
    <edge id="-E4" from="J4" to="intersection_2" priority="-1">
        <lane id="-E4_0" index="0" speed="13.89" length="192.80" shape="300.00,101.60 107.20,101.60"/>
    </edge>
    <edge id="-E5" from="J5" to="intersection_2" priority="-1">
        <lane id="-E5_0" index="0" speed="13.89" length="192.80" shape="98.40,300.00 98.40,107.20"/>
    </edge>
    <edge id="-E6" from="J6" to="intersection_0" priority="-1">
        <lane id="-E6_0" index="0" speed="13.89" length="192.80" shape="-101.60,300.00 -101.60,107.20"/>
    </edge>
    <edge id="-E7" from="J7" to="intersection_0" priority="-1">
        <lane id="-E7_0" index="0" speed="13.89" length="192.80" shape="-300.00,98.40 -107.20,98.40"/>
    </edge>
    <edge id="-E8" from="J8" to="intersection_1" priority="-1">
        <lane id="-E8_0" index="0" speed="13.89" length="192.80" shape="-300.00,-101.60 -107.20,-101.60"/>
    </edge>
    <edge id="-E9" from="J9" to="intersection_1" priority="-1">
        <lane id="-E9_0" index="0" speed="13.89" length="192.80" shape="-98.40,-300.00 -98.40,-107.20"/>
    </edge>
    <edge id="E0" from="intersection_0" to="intersection_1" priority="-1">
        <lane id="E0_0" index="0" speed="13.89" length="185.60" shape="-101.60,92.80 -101.60,-92.80"/>
    </edge>
    <edge id="E1" from="intersection_3" to="intersection_2" priority="-1">
        <lane id="E1_0" index="0" speed="13.89" length="185.60" shape="101.60,-92.80 101.60,92.80"/>
    </edge>
    <edge id="E10" from="intersection_3" to="J10" priority="-1">
        <lane id="E10_0" index="0" speed="13.89" length="192.80" shape="98.40,-107.20 98.40,-300.00"/>
    </edge>
    <edge id="E11" from="intersection_3" to="J11" priority="-1">
        <lane id="E11_0" index="0" speed="13.89" length="192.80" shape="107.20,-101.60 300.00,-101.60"/>
    </edge>
    <edge id="E2" from="intersection_0" to="intersection_2" priority="-1">
        <lane id="E2_0" index="0" speed="13.89" length="185.60" shape="-92.80,98.40 92.80,98.40"/>
    </edge>
    <edge id="E3" from="intersection_1" to="intersection_3" priority="-1">
        <lane id="E3_0" index="0" speed="13.89" length="185.60" shape="-92.80,-101.60 92.80,-101.60"/>
    </edge>
    <edge id="E4" from="intersection_2" to="J4" priority="-1">
        <lane id="E4_0" index="0" speed="13.89" length="192.80" shape="107.20,98.40 300.00,98.40"/>
    </edge>
    <edge id="E5" from="intersection_2" to="J5" priority="-1">
        <lane id="E5_0" index="0" speed="13.89" length="192.80" shape="101.60,107.20 101.60,300.00"/>
    </edge>
    <edge id="E6" from="intersection_0" to="J6" priority="-1">
        <lane id="E6_0" index="0" speed="13.89" length="192.80" shape="-98.40,107.20 -98.40,300.00"/>
    </edge>
    <edge id="E7" from="intersection_0" to="J7" priority="-1">
        <lane id="E7_0" index="0" speed="13.89" length="192.80" shape="-107.20,101.60 -300.00,101.60"/>
    </edge>
    <edge id="E8" from="intersection_1" to="J8" priority="-1">
        <lane id="E8_0" index="0" speed="13.89" length="192.80" shape="-107.20,-98.40 -300.00,-98.40"/>
    </edge>
    <edge id="E9" from="intersection_1" to="J9" priority="-1">
        <lane id="E9_0" index="0" speed="13.89" length="192.80" shape="-101.60,-107.20 -101.60,-300.00"/>
    </edge>

    <tlLogic id="intersection_0" type="static" programID="0" offset="0">
        <phase duration="42" state="GrGr"/>
        <phase duration="42" state="rGrG"/>
    </tlLogic>
    <tlLogic id="intersection_1" type="static" programID="0" offset="0">
        <phase duration="42" state="GrGr"/>
        <phase duration="42" state="rGrG"/>
    </tlLogic>
    <tlLogic id="intersection_2" type="static" programID="0" offset="0">
        <phase duration="42" state="GrGr"/>
        <phase duration="42" state="rGrG"/>
    </tlLogic>
    <tlLogic id="intersection_3" type="static" programID="0" offset="0">
        <phase duration="42" state="GrGr"/>
        <phase duration="42" state="rGrG"/>
    </tlLogic>

    <junction id="J10" type="dead_end" x="100.00" y="-300.00" incLanes="E10_0" intLanes="" shape="100.00,-300.00 96.80,-300.00 100.00,-300.00"/>
    <junction id="J11" type="dead_end" x="300.00" y="-100.00" incLanes="E11_0" intLanes="" shape="300.00,-100.00 300.00,-103.20 300.00,-100.00"/>
    <junction id="J4" type="dead_end" x="300.00" y="100.00" incLanes="E4_0" intLanes="" shape="300.00,100.00 300.00,96.80 300.00,100.00"/>
    <junction id="J5" type="dead_end" x="100.00" y="300.00" incLanes="E5_0" intLanes="" shape="100.00,300.00 103.20,300.00 100.00,300.00"/>
    <junction id="J6" type="dead_end" x="-100.00" y="300.00" incLanes="E6_0" intLanes="" shape="-100.00,300.00 -96.80,300.00 -100.00,300.00"/>
    <junction id="J7" type="dead_end" x="-300.00" y="100.00" incLanes="E7_0" intLanes="" shape="-300.00,100.00 -300.00,103.20 -300.00,100.00"/>
    <junction id="J8" type="dead_end" x="-300.00" y="-100.00" incLanes="E8_0" intLanes="" shape="-300.00,-100.00 -300.00,-96.80 -300.00,-100.00"/>
    <junction id="J9" type="dead_end" x="-100.00" y="-300.00" incLanes="E9_0" intLanes="" shape="-100.00,-300.00 -103.20,-300.00 -100.00,-300.00"/>
    <junction id="intersection_0" type="traffic_light" x="-100.00" y="100.00" incLanes="-E6_0 -E2_0 -E0_0 -E7_0" intLanes=":intersection_0_0_0 :intersection_0_1_0 :intersection_0_2_0 :intersection_0_3_0" shape="-103.20,107.20 -96.80,107.20 -96.36,104.98 -95.80,104.20 -95.02,103.64 -94.02,103.31 -92.80,103.20 -92.80,96.80 -95.02,96.36 -95.80,95.80 -96.36,95.02 -96.69,94.02 -96.80,92.80 -103.20,92.80 -103.64,95.02 -104.20,95.80 -104.98,96.36 -105.98,96.69 -107.20,96.80 -107.20,103.20 -104.98,103.64 -104.20,104.20 -103.64,104.98 -103.31,105.98">
        <request index="0" response="0000" foes="1010" cont="0"/>
        <request index="1" response="0101" foes="0101" cont="0"/>
        <request index="2" response="0000" foes="1010" cont="0"/>
        <request index="3" response="0101" foes="0101" cont="0"/>
    </junction>
    <junction id="intersection_1" type="traffic_light" x="-100.00" y="-100.00" incLanes="E0_0 -E3_0 -E9_0 -E8_0" intLanes=":intersection_1_0_0 :intersection_1_1_0 :intersection_1_2_0 :intersection_1_3_0" shape="-103.20,-92.80 -96.80,-92.80 -96.36,-95.02 -95.80,-95.80 -95.02,-96.36 -94.02,-96.69 -92.80,-96.80 -92.80,-103.20 -95.02,-103.64 -95.80,-104.20 -96.36,-104.98 -96.69,-105.98 -96.80,-107.20 -103.20,-107.20 -103.64,-104.98 -104.20,-104.20 -104.98,-103.64 -105.98,-103.31 -107.20,-103.20 -107.20,-96.80 -104.98,-96.36 -104.20,-95.80 -103.64,-95.02 -103.31,-94.02">
        <request index="0" response="0000" foes="1010" cont="0"/>
        <request index="1" response="0101" foes="0101" cont="0"/>
        <request index="2" response="0000" foes="1010" cont="0"/>
        <request index="3" response="0101" foes="0101" cont="0"/>
    </junction>
    <junction id="intersection_2" type="traffic_light" x="100.00" y="100.00" incLanes="-E5_0 -E4_0 E1_0 E2_0" intLanes=":intersection_2_0_0 :intersection_2_1_0 :intersection_2_2_0 :intersection_2_3_0" shape="96.80,107.20 103.20,107.20 103.64,104.98 104.20,104.20 104.98,103.64 105.98,103.31 107.20,103.20 107.20,96.80 104.98,96.36 104.20,95.80 103.64,95.02 103.31,94.02 103.20,92.80 96.80,92.80 96.36,95.02 95.80,95.80 95.02,96.36 94.02,96.69 92.80,96.80 92.80,103.20 95.02,103.64 95.80,104.20 96.36,104.98 96.69,105.98">
        <request index="0" response="0000" foes="1010" cont="0"/>
        <request index="1" response="0101" foes="0101" cont="0"/>
        <request index="2" response="0000" foes="1010" cont="0"/>
        <request index="3" response="0101" foes="0101" cont="0"/>
    </junction>
    <junction id="intersection_3" type="traffic_light" x="100.00" y="-100.00" incLanes="-E1_0 -E11_0 -E10_0 E3_0" intLanes=":intersection_3_0_0 :intersection_3_1_0 :intersection_3_2_0 :intersection_3_3_0" shape="96.80,-92.80 103.20,-92.80 103.64,-95.02 104.20,-95.80 104.98,-96.36 105.98,-96.69 107.20,-96.80 107.20,-103.20 104.98,-103.64 104.20,-104.20 103.64,-104.98 103.31,-105.98 103.20,-107.20 96.80,-107.20 96.36,-104.98 95.80,-104.20 95.02,-103.64 94.02,-103.31 92.80,-103.20 92.80,-96.80 95.02,-96.36 95.80,-95.80 96.36,-95.02 96.69,-94.02">
        <request index="0" response="0000" foes="1010" cont="0"/>
        <request index="1" response="0101" foes="0101" cont="0"/>
        <request index="2" response="0000" foes="1010" cont="0"/>
        <request index="3" response="0101" foes="0101" cont="0"/>
    </junction>

    <connection from="-E0" to="E6" fromLane="0" toLane="0" via=":intersection_0_2_0" tl="intersection_0" linkIndex="2" dir="s" state="O"/>
    <connection from="-E1" to="E10" fromLane="0" toLane="0" via=":intersection_3_0_0" tl="intersection_3" linkIndex="0" dir="s" state="O"/>
    <connection from="-E10" to="E1" fromLane="0" toLane="0" via=":intersection_3_2_0" tl="intersection_3" linkIndex="2" dir="s" state="O"/>
    <connection from="-E11" to="-E3" fromLane="0" toLane="0" via=":intersection_3_1_0" tl="intersection_3" linkIndex="1" dir="s" state="o"/>
    <connection from="-E2" to="E7" fromLane="0" toLane="0" via=":intersection_0_1_0" tl="intersection_0" linkIndex="1" dir="s" state="o"/>
    <connection from="-E3" to="E8" fromLane="0" toLane="0" via=":intersection_1_1_0" tl="intersection_1" linkIndex="1" dir="s" state="o"/>
    <connection from="-E4" to="-E2" fromLane="0" toLane="0" via=":intersection_2_1_0" tl="intersection_2" linkIndex="1" dir="s" state="o"/>
    <connection from="-E5" to="-E1" fromLane="0" toLane="0" via=":intersection_2_0_0" tl="intersection_2" linkIndex="0" dir="s" state="O"/>
    <connection from="-E6" to="E0" fromLane="0" toLane="0" via=":intersection_0_0_0" tl="intersection_0" linkIndex="0" dir="s" state="O"/>
    <connection from="-E7" to="E2" fromLane="0" toLane="0" via=":intersection_0_3_0" tl="intersection_0" linkIndex="3" dir="s" state="o"/>
    <connection from="-E8" to="E3" fromLane="0" toLane="0" via=":intersection_1_3_0" tl="intersection_1" linkIndex="3" dir="s" state="o"/>
    <connection from="-E9" to="-E0" fromLane="0" toLane="0" via=":intersection_1_2_0" tl="intersection_1" linkIndex="2" dir="s" state="O"/>
    <connection from="E0" to="E9" fromLane="0" toLane="0" via=":intersection_1_0_0" tl="intersection_1" linkIndex="0" dir="s" state="O"/>
    <connection from="E1" to="E5" fromLane="0" toLane="0" via=":intersection_2_2_0" tl="intersection_2" linkIndex="2" dir="s" state="O"/>
    <connection from="E2" to="E4" fromLane="0" toLane="0" via=":intersection_2_3_0" tl="intersection_2" linkIndex="3" dir="s" state="o"/>
    <connection from="E3" to="E11" fromLane="0" toLane="0" via=":intersection_3_3_0" tl="intersection_3" linkIndex="3" dir="s" state="o"/>

    <connection from=":intersection_0_0" to="E0" fromLane="0" toLane="0" dir="s" state="M"/>
    <connection from=":intersection_0_1" to="E7" fromLane="0" toLane="0" dir="s" state="M"/>
    <connection from=":intersection_0_2" to="E6" fromLane="0" toLane="0" dir="s" state="M"/>
    <connection from=":intersection_0_3" to="E2" fromLane="0" toLane="0" dir="s" state="M"/>
    <connection from=":intersection_1_0" to="E9" fromLane="0" toLane="0" dir="s" state="M"/>
    <connection from=":intersection_1_1" to="E8" fromLane="0" toLane="0" dir="s" state="M"/>
    <connection from=":intersection_1_2" to="-E0" fromLane="0" toLane="0" dir="s" state="M"/>
    <connection from=":intersection_1_3" to="E3" fromLane="0" toLane="0" dir="s" state="M"/>
    <connection from=":intersection_2_0" to="-E1" fromLane="0" toLane="0" dir="s" state="M"/>
    <connection from=":intersection_2_1" to="-E2" fromLane="0" toLane="0" dir="s" state="M"/>
    <connection from=":intersection_2_2" to="E5" fromLane="0" toLane="0" dir="s" state="M"/>
    <connection from=":intersection_2_3" to="E4" fromLane="0" toLane="0" dir="s" state="M"/>
    <connection from=":intersection_3_0" to="E10" fromLane="0" toLane="0" dir="s" state="M"/>
    <connection from=":intersection_3_1" to="-E3" fromLane="0" toLane="0" dir="s" state="M"/>
    <connection from=":intersection_3_2" to="E1" fromLane="0" toLane="0" dir="s" state="M"/>
    <connection from=":intersection_3_3" to="E11" fromLane="0" toLane="0" dir="s" state="M"/>

</net>
