<?xml version="1.0" encoding="UTF-8"?>

<!-- generated on 2021-12-09 01:37:30 by Eclipse SUMO GUI Version 1.11.0
-->

<configuration xmlns:xsi="http://www.w3.org/2001/XMLSchema-instance" xsi:noNamespaceSchemaLocation="http://sumo.dlr.de/xsd/sumoConfiguration.xsd">

    <input>
        <net-file value="sample.net.xml"/>
        <route-files value="sample.rou.xml"/>
    </input>

    <output>
        <tripinfo-output value="sample.tripinfo.xml"/>
    </output>

</configuration>
