<routes>
        <vType id="type_0" accel="0.8" decel="4.5" sigma="0.5" length="5" minGap="2.5" maxSpeed="15.00" guiShape="passenger"/>
        <route edges="-E6 E0 E9" color="yellow" id="route_0"/>
        <route edges="-E9 -E0 E6" color="yellow" id="route_1"/>
        <route edges="-E5 -E1 E10" color="yellow" id="route_2"/>
        <route edges="-E10 E1 E5" color="yellow" id="route_3"/>
        <route edges="-E7 E2 E4" color="yellow" id="route_4"/>
        <route edges="-E4 -E2 E7" color="yellow" id="route_5"/>
        <route edges="-E8 E3 E11" color="yellow" id="route_6"/>
        <route edges="-E11 -E3 E8" color="yellow" id="route_7"/>
    <vehicle id="vehicle_0" type="type_0" route="route_0" depart="0" color="0,1,0"/>
    <vehicle id="vehicle_1" type="type_0" route="route_1" depart="0" color="0,1,0"/>
    <vehicle id="vehicle_2" type="type_0" route="route_2" depart="0" color="0,1,0"/>
    <vehicle id="vehicle_3" type="type_0" route="route_3" depart="0" color="0,1,0"/>
    <vehicle id="vehicle_4" type="type_0" route="route_4" depart="0" color="0,1,0"/>
    <vehicle id="vehicle_5" type="type_0" route="route_5" depart="0" color="0,1,0"/>
    <vehicle id="vehicle_6" type="type_0" route="route_6" depart="0" color="0,1,0"/>
    <vehicle id="vehicle_7" type="type_0" route="route_7" depart="0" color="0,1,0"/>
    <vehicle id="vehicle_8" type="type_0" route="route_1" depart="1" color="0,1,0"/>
    <vehicle id="vehicle_9" type="type_0" route="route_7" depart="2" color="0,1,0"/>
    <vehicle id="vehicle_10" type="type_0" route="route_7" depart="3" color="0,1,0"/>
    <vehicle id="vehicle_11" type="type_0" route="route_3" depart="7" color="0,1,0"/>
    <vehicle id="vehicle_12" type="type_0" route="route_2" depart="9" color="0,1,0"/>
    <vehicle id="vehicle_13" type="type_0" route="route_2" depart="10" color="0,1,0"/>
    <vehicle id="vehicle_14" type="type_0" route="route_7" depart="10" color="0,1,0"/>
    <vehicle id="vehicle_15" type="type_0" route="route_2" depart="16" color="0,1,0"/>
    <vehicle id="vehicle_16" type="type_0" route="route_1" depart="17" color="0,1,0"/>
    <vehicle id="vehicle_17" type="type_0" route="route_1" depart="24" color="0,1,0"/>
    <vehicle id="vehicle_18" type="type_0" route="route_3" depart="28" color="0,1,0"/>
    <vehicle id="vehicle_19" type="type_0" route="route_0" depart="30" color="0,1,0"/>
    <vehicle id="vehicle_20" type="type_0" route="route_0" depart="31" color="0,1,0"/>
    <vehicle id="vehicle_21" type="type_0" route="route_5" depart="33" color="0,1,0"/>
    <vehicle id="vehicle_22" type="type_0" route="route_2" depart="39" color="0,1,0"/>
    <vehicle id="vehicle_23" type="type_0" route="route_4" depart="40" color="0,1,0"/>
    <vehicle id="vehicle_24" type="type_0" route="route_7" depart="41" color="0,1,0"/>
    <vehicle id="vehicle_25" type="type_0" route="route_4" depart="45" color="0,1,0"/>
    <vehicle id="vehicle_26" type="type_0" route="route_1" depart="50" color="0,1,0"/>
    <vehicle id="vehicle_27" type="type_0" route="route_2" depart="51" color="0,1,0"/>
    <vehicle id="vehicle_28" type="type_0" route="route_1" depart="52" color="0,1,0"/>
    <vehicle id="vehicle_29" type="type_0" route="route_2" depart="54" color="0,1,0"/>
    <vehicle id="vehicle_30" type="type_0" route="route_4" depart="57" color="0,1,0"/>
    <vehicle id="vehicle_31" type="type_0" route="route_6" depart="66" color="0,1,0"/>
    <vehicle id="vehicle_32" type="type_0" route="route_5" depart="68" color="0,1,0"/>
    <vehicle id="vehicle_33" type="type_0" route="route_3" depart="77" color="0,1,0"/>
    <vehicle id="vehicle_34" type="type_0" route="route_0" depart="80" color="0,1,0"/>
    <vehicle id="vehicle_35" type="type_0" route="route_2" depart="81" color="0,1,0"/>
    <vehicle id="vehicle_36" type="type_0" route="route_5" depart="91" color="0,1,0"/>
    <vehicle id="vehicle_37" type="type_0" route="route_0" depart="94" color="0,1,0"/>
    <vehicle id="vehicle_38" type="type_0" route="route_2" depart="105" color="0,1,0"/>
    <vehicle id="vehicle_39" type="type_0" route="route_6" depart="105" color="0,1,0"/>
    <vehicle id="vehicle_40" type="type_0" route="route_4" depart="106" color="0,1,0"/>
    <vehicle id="vehicle_41" type="type_0" route="route_1" depart="108" color="0,1,0"/>
    <vehicle id="vehicle_42" type="type_0" route="route_1" depart="109" color="0,1,0"/>
    <vehicle id="vehicle_43" type="type_0" route="route_1" depart="116" color="0,1,0"/>
    <vehicle id="vehicle_44" type="type_0" route="route_0" depart="122" color="0,1,0"/>
    <vehicle id="vehicle_45" type="type_0" route="route_0" depart="124" color="0,1,0"/>
    <vehicle id="vehicle_46" type="type_0" route="route_1" depart="126" color="0,1,0"/>
    <vehicle id="vehicle_47" type="type_0" route="route_1" depart="129" color="0,1,0"/>
    <vehicle id="vehicle_48" type="type_0" route="route_6" depart="130" color="0,1,0"/>
    <vehicle id="vehicle_49" type="type_0" route="route_0" depart="131" color="0,1,0"/>
    <vehicle id="vehicle_50" type="type_0" route="route_7" depart="135" color="0,1,0"/>
    <vehicle id="vehicle_51" type="type_0" route="route_1" depart="138" color="0,1,0"/>
    <vehicle id="vehicle_52" type="type_0" route="route_4" depart="142" color="0,1,0"/>
    <vehicle id="vehicle_53" type="type_0" route="route_0" depart="144" color="0,1,0"/>
    <vehicle id="vehicle_54" type="type_0" route="route_5" depart="144" color="0,1,0"/>
    <vehicle id="vehicle_55" type="type_0" route="route_1" depart="145" color="0,1,0"/>
    <vehicle id="vehicle_56" type="type_0" route="route_7" depart="148" color="0,1,0"/>
    <vehicle id="vehicle_57" type="type_0" route="route_4" depart="151" color="0,1,0"/>
    <vehicle id="vehicle_58" type="type_0" route="route_7" depart="153" color="0,1,0"/>
    <vehicle id="vehicle_59" type="type_0" route="route_7" depart="158" color="0,1,0"/>
    <vehicle id="vehicle_60" type="type_0" route="route_6" depart="160" color="0,1,0"/>
    <vehicle id="vehicle_61" type="type_0" route="route_2" depart="164" color="0,1,0"/>
    <vehicle id="vehicle_62" type="type_0" route="route_7" depart="172" color="0,1,0"/>
    <vehicle id="vehicle_63" type="type_0" route="route_1" depart="173" color="0,1,0"/>
    <vehicle id="vehicle_64" type="type_0" route="route_5" depart="175" color="0,1,0"/>
    <vehicle id="vehicle_65" type="type_0" route="route_3" depart="185" color="0,1,0"/>
    <vehicle id="vehicle_66" type="type_0" route="route_4" depart="190" color="0,1,0"/>
    <vehicle id="vehicle_67" type="type_0" route="route_2" depart="194" color="0,1,0"/>
    <vehicle id="vehicle_68" type="type_0" route="route_2" depart="195" color="0,1,0"/>
    <vehicle id="vehicle_69" type="type_0" route="route_7" depart="196" color="0,1,0"/>
    <vehicle id="vehicle_70" type="type_0" route="route_4" depart="197" color="0,1,0"/>
    <vehicle id="vehicle_71" type="type_0" route="route_4" depart="204" color="0,1,0"/>
    <vehicle id="vehicle_72" type="type_0" route="route_7" depart="205" color="0,1,0"/>
    <vehicle id="vehicle_73" type="type_0" route="route_2" depart="206" color="0,1,0"/>
    <vehicle id="vehicle_74" type="type_0" route="route_1" depart="207" color="0,1,0"/>
    <vehicle id="vehicle_75" type="type_0" route="route_2" depart="217" color="0,1,0"/>
    <vehicle id="vehicle_76" type="type_0" route="route_0" depart="226" color="0,1,0"/>
    <vehicle id="vehicle_77" type="type_0" route="route_3" depart="229" color="0,1,0"/>
    <vehicle id="vehicle_78" type="type_0" route="route_5" depart="230" color="0,1,0"/>
    <vehicle id="vehicle_79" type="type_0" route="route_2" depart="232" color="0,1,0"/>
    <vehicle id="vehicle_80" type="type_0" route="route_1" depart="238" color="0,1,0"/>
    <vehicle id="vehicle_81" type="type_0" route="route_5" depart="239" color="0,1,0"/>
    <vehicle id="vehicle_82" type="type_0" route="route_2" depart="240" color="0,1,0"/>
    <vehicle id="vehicle_83" type="type_0" route="route_3" depart="247" color="0,1,0"/>
    <vehicle id="vehicle_84" type="type_0" route="route_5" depart="248" color="0,1,0"/>
    <vehicle id="vehicle_85" type="type_0" route="route_1" depart="262" color="0,1,0"/>
    <vehicle id="vehicle_86" type="type_0" route="route_5" depart="263" color="0,1,0"/>
    <vehicle id="vehicle_87" type="type_0" route="route_2" depart="266" color="0,1,0"/>
    <vehicle id="vehicle_88" type="type_0" route="route_7" depart="267" color="0,1,0"/>
    <vehicle id="vehicle_89" type="type_0" route="route_1" depart="269" color="0,1,0"/>
    <vehicle id="vehicle_90" type="type_0" route="route_7" depart="269" color="0,1,0"/>
    <vehicle id="vehicle_91" type="type_0" route="route_1" depart="270" color="0,1,0"/>
    <vehicle id="vehicle_92" type="type_0" route="route_7" depart="272" color="0,1,0"/>
    <vehicle id="vehicle_93" type="type_0" route="route_2" depart="287" color="0,1,0"/>
    <vehicle id="vehicle_94" type="type_0" route="route_4" depart="289" color="0,1,0"/>
    <vehicle id="vehicle_95" type="type_0" route="route_4" depart="290" color="0,1,0"/>
    <vehicle id="vehicle_96" type="type_0" route="route_6" depart="296" color="0,1,0"/>
    <vehicle id="vehicle_97" type="type_0" route="route_0" depart="299" color="0,1,0"/>
    <vehicle id="vehicle_98" type="type_0" route="route_1" depart="299" color="0,1,0"/>
    <vehicle id="vehicle_99" type="type_0" route="route_2" depart="303" color="0,1,0"/>
    <vehicle id="vehicle_100" type="type_0" route="route_4" depart="304" color="0,1,0"/>
    <vehicle id="vehicle_101" type="type_0" route="route_4" depart="305" color="0,1,0"/>
    <vehicle id="vehicle_102" type="type_0" route="route_3" depart="315" color="0,1,0"/>
    <vehicle id="vehicle_103" type="type_0" route="route_7" depart="319" color="0,1,0"/>
    <vehicle id="vehicle_104" type="type_0" route="route_0" depart="321" color="0,1,0"/>
    <vehicle id="vehicle_105" type="type_0" route="route_0" depart="330" color="0,1,0"/>
    <vehicle id="vehicle_106" type="type_0" route="route_7" depart="342" color="0,1,0"/>
    <vehicle id="vehicle_107" type="type_0" route="route_4" depart="343" color="0,1,0"/>
    <vehicle id="vehicle_108" type="type_0" route="route_7" depart="345" color="0,1,0"/>
    <vehicle id="vehicle_109" type="type_0" route="route_3" depart="349" color="0,1,0"/>
    <vehicle id="vehicle_110" type="type_0" route="route_0" depart="360" color="0,1,0"/>
    <vehicle id="vehicle_111" type="type_0" route="route_4" depart="360" color="0,1,0"/>
    <vehicle id="vehicle_112" type="type_0" route="route_2" depart="362" color="0,1,0"/>
    <vehicle id="vehicle_113" type="type_0" route="route_7" depart="363" color="0,1,0"/>
    <vehicle id="vehicle_114" type="type_0" route="route_7" depart="368" color="0,1,0"/>
    <vehicle id="vehicle_115" type="type_0" route="route_4" depart="369" color="0,1,0"/>
    <vehicle id="vehicle_116" type="type_0" route="route_2" depart="382" color="0,1,0"/>
    <vehicle id="vehicle_117" type="type_0" route="route_2" depart="392" color="0,1,0"/>
    <vehicle id="vehicle_118" type="type_0" route="route_1" depart="405" color="0,1,0"/>
    <vehicle id="vehicle_119" type="type_0" route="route_0" depart="422" color="0,1,0"/>
    <vehicle id="vehicle_120" type="type_0" route="route_2" depart="422" color="0,1,0"/>
    <vehicle id="vehicle_121" type="type_0" route="route_0" depart="426" color="0,1,0"/>
    <vehicle id="vehicle_122" type="type_0" route="route_4" depart="430" color="0,1,0"/>
    <vehicle id="vehicle_123" type="type_0" route="route_1" depart="433" color="0,1,0"/>
    <vehicle id="vehicle_124" type="type_0" route="route_3" depart="441" color="0,1,0"/>
    <vehicle id="vehicle_125" type="type_0" route="route_7" depart="441" color="0,1,0"/>
    <vehicle id="vehicle_126" type="type_0" route="route_3" depart="442" color="0,1,0"/>
    <vehicle id="vehicle_127" type="type_0" route="route_3" depart="443" color="0,1,0"/>
    <vehicle id="vehicle_128" type="type_0" route="route_5" depart="443" color="0,1,0"/>
    <vehicle id="vehicle_129" type="type_0" route="route_0" depart="449" color="0,1,0"/>
    <vehicle id="vehicle_130" type="type_0" route="route_7" depart="452" color="0,1,0"/>
    <vehicle id="vehicle_131" type="type_0" route="route_1" depart="455" color="0,1,0"/>
    <vehicle id="vehicle_132" type="type_0" route="route_1" depart="456" color="0,1,0"/>
    <vehicle id="vehicle_133" type="type_0" route="route_6" depart="462" color="0,1,0"/>
    <vehicle id="vehicle_134" type="type_0" route="route_7" depart="463" color="0,1,0"/>
    <vehicle id="vehicle_135" type="type_0" route="route_2" depart="465" color="0,1,0"/>
    <vehicle id="vehicle_136" type="type_0" route="route_7" depart="465" color="0,1,0"/>
    <vehicle id="vehicle_137" type="type_0" route="route_7" depart="467" color="0,1,0"/>
    <vehicle id="vehicle_138" type="type_0" route="route_4" depart="475" color="0,1,0"/>
    <vehicle id="vehicle_139" type="type_0" route="route_2" depart="484" color="0,1,0"/>
    <vehicle id="vehicle_140" type="type_0" route="route_2" depart="488" color="0,1,0"/>
    <vehicle id="vehicle_141" type="type_0" route="route_0" depart="502" color="0,1,0"/>
    <vehicle id="vehicle_142" type="type_0" route="route_5" depart="506" color="0,1,0"/>
    <vehicle id="vehicle_143" type="type_0" route="route_2" depart="507" color="0,1,0"/>
    <vehicle id="vehicle_144" type="type_0" route="route_7" depart="509" color="0,1,0"/>
    <vehicle id="vehicle_145" type="type_0" route="route_5" depart="515" color="0,1,0"/>
    <vehicle id="vehicle_146" type="type_0" route="route_4" depart="518" color="0,1,0"/>
    <vehicle id="vehicle_147" type="type_0" route="route_1" depart="519" color="0,1,0"/>
    <vehicle id="vehicle_148" type="type_0" route="route_3" depart="522" color="0,1,0"/>
    <vehicle id="vehicle_149" type="type_0" route="route_5" depart="522" color="0,1,0"/>
    <vehicle id="vehicle_150" type="type_0" route="route_0" depart="525" color="0,1,0"/>
    <vehicle id="vehicle_151" type="type_0" route="route_7" depart="525" color="0,1,0"/>
    <vehicle id="vehicle_152" type="type_0" route="route_3" depart="528" color="0,1,0"/>
    <vehicle id="vehicle_153" type="type_0" route="route_5" depart="533" color="0,1,0"/>
    <vehicle id="vehicle_154" type="type_0" route="route_4" depart="541" color="0,1,0"/>
    <vehicle id="vehicle_155" type="type_0" route="route_4" depart="544" color="0,1,0"/>
    <vehicle id="vehicle_156" type="type_0" route="route_3" depart="545" color="0,1,0"/>
    <vehicle id="vehicle_157" type="type_0" route="route_6" depart="550" color="0,1,0"/>
    <vehicle id="vehicle_158" type="type_0" route="route_4" depart="551" color="0,1,0"/>
    <vehicle id="vehicle_159" type="type_0" route="route_5" depart="554" color="0,1,0"/>
    <vehicle id="vehicle_160" type="type_0" route="route_7" depart="556" color="0,1,0"/>
    <vehicle id="vehicle_161" type="type_0" route="route_3" depart="557" color="0,1,0"/>
    <vehicle id="vehicle_162" type="type_0" route="route_1" depart="558" color="0,1,0"/>
    <vehicle id="vehicle_163" type="type_0" route="route_4" depart="558" color="0,1,0"/>
    <vehicle id="vehicle_164" type="type_0" route="route_7" depart="558" color="0,1,0"/>
    <vehicle id="vehicle_165" type="type_0" route="route_5" depart="561" color="0,1,0"/>
    <vehicle id="vehicle_166" type="type_0" route="route_5" depart="563" color="0,1,0"/>
    <vehicle id="vehicle_167" type="type_0" route="route_1" depart="565" color="0,1,0"/>
    <vehicle id="vehicle_168" type="type_0" route="route_2" depart="568" color="0,1,0"/>
    <vehicle id="vehicle_169" type="type_0" route="route_5" depart="571" color="0,1,0"/>
    <vehicle id="vehicle_170" type="type_0" route="route_2" depart="575" color="0,1,0"/>
    <vehicle id="vehicle_171" type="type_0" route="route_5" depart="575" color="0,1,0"/>
    <vehicle id="vehicle_172" type="type_0" route="route_6" depart="576" color="0,1,0"/>
    <vehicle id="vehicle_173" type="type_0" route="route_3" depart="586" color="0,1,0"/>
    <vehicle id="vehicle_174" type="type_0" route="route_6" depart="595" color="0,1,0"/>
    <vehicle id="vehicle_175" type="type_0" route="route_1" depart="598" color="0,1,0"/>
    <vehicle id="vehicle_176" type="type_0" route="route_5" depart="600" color="0,1,0"/>
    <vehicle id="vehicle_177" type="type_0" route="route_5" depart="603" color="0,1,0"/>
    <vehicle id="vehicle_178" type="type_0" route="route_1" depart="604" color="0,1,0"/>
    <vehicle id="vehicle_179" type="type_0" route="route_7" depart="616" color="0,1,0"/>
    <vehicle id="vehicle_180" type="type_0" route="route_5" depart="619" color="0,1,0"/>
    <vehicle id="vehicle_181" type="type_0" route="route_1" depart="620" color="0,1,0"/>
    <vehicle id="vehicle_182" type="type_0" route="route_4" depart="628" color="0,1,0"/>
    <vehicle id="vehicle_183" type="type_0" route="route_3" depart="632" color="0,1,0"/>
    <vehicle id="vehicle_184" type="type_0" route="route_7" depart="634" color="0,1,0"/>
    <vehicle id="vehicle_185" type="type_0" route="route_3" depart="635" color="0,1,0"/>
    <vehicle id="vehicle_186" type="type_0" route="route_6" depart="644" color="0,1,0"/>
    <vehicle id="vehicle_187" type="type_0" route="route_3" depart="647" color="0,1,0"/>
    <vehicle id="vehicle_188" type="type_0" route="route_7" depart="649" color="0,1,0"/>
    <vehicle id="vehicle_189" type="type_0" route="route_1" depart="653" color="0,1,0"/>
    <vehicle id="vehicle_190" type="type_0" route="route_3" depart="655" color="0,1,0"/>
    <vehicle id="vehicle_191" type="type_0" route="route_7" depart="655" color="0,1,0"/>
    <vehicle id="vehicle_192" type="type_0" route="route_2" depart="657" color="0,1,0"/>
    <vehicle id="vehicle_193" type="type_0" route="route_5" depart="658" color="0,1,0"/>
    <vehicle id="vehicle_194" type="type_0" route="route_7" depart="664" color="0,1,0"/>
    <vehicle id="vehicle_195" type="type_0" route="route_2" depart="665" color="0,1,0"/>
    <vehicle id="vehicle_196" type="type_0" route="route_1" depart="670" color="0,1,0"/>
    <vehicle id="vehicle_197" type="type_0" route="route_3" depart="671" color="0,1,0"/>
    <vehicle id="vehicle_198" type="type_0" route="route_3" depart="672" color="0,1,0"/>
    <vehicle id="vehicle_199" type="type_0" route="route_7" depart="681" color="0,1,0"/>
    <vehicle id="vehicle_200" type="type_0" route="route_0" depart="684" color="0,1,0"/>
    <vehicle id="vehicle_201" type="type_0" route="route_1" depart="693" color="0,1,0"/>
    <vehicle id="vehicle_202" type="type_0" route="route_6" depart="703" color="0,1,0"/>
    <vehicle id="vehicle_203" type="type_0" route="route_2" depart="724" color="0,1,0"/>
    <vehicle id="vehicle_204" type="type_0" route="route_2" depart="729" color="0,1,0"/>
    <vehicle id="vehicle_205" type="type_0" route="route_5" depart="735" color="0,1,0"/>
    <vehicle id="vehicle_206" type="type_0" route="route_7" depart="735" color="0,1,0"/>
    <vehicle id="vehicle_207" type="type_0" route="route_5" depart="742" color="0,1,0"/>
    <vehicle id="vehicle_208" type="type_0" route="route_5" depart="743" color="0,1,0"/>
    <vehicle id="vehicle_209" type="type_0" route="route_2" depart="748" color="0,1,0"/>
    <vehicle id="vehicle_210" type="type_0" route="route_7" depart="750" color="0,1,0"/>
    <vehicle id="vehicle_211" type="type_0" route="route_4" depart="752" color="0,1,0"/>
    <vehicle id="vehicle_212" type="type_0" route="route_5" depart="757" color="0,1,0"/>
    <vehicle id="vehicle_213" type="type_0" route="route_6" depart="759" color="0,1,0"/>
    <vehicle id="vehicle_214" type="type_0" route="route_7" depart="759" color="0,1,0"/>
    <vehicle id="vehicle_215" type="type_0" route="route_1" depart="771" color="0,1,0"/>
    <vehicle id="vehicle_216" type="type_0" route="route_5" depart="775" color="0,1,0"/>
    <vehicle id="vehicle_217" type="type_0" route="route_6" depart="775" color="0,1,0"/>
    <vehicle id="vehicle_218" type="type_0" route="route_0" depart="788" color="0,1,0"/>
    <vehicle id="vehicle_219" type="type_0" route="route_0" depart="793" color="0,1,0"/>
    <vehicle id="vehicle_220" type="type_0" route="route_4" depart="797" color="0,1,0"/>
    <vehicle id="vehicle_221" type="type_0" route="route_5" depart="799" color="0,1,0"/>
    <vehicle id="vehicle_222" type="type_0" route="route_0" depart="803" color="0,1,0"/>
    <vehicle id="vehicle_223" type="type_0" route="route_6" depart="813" color="0,1,0"/>
    <vehicle id="vehicle_224" type="type_0" route="route_5" depart="824" color="0,1,0"/>
    <vehicle id="vehicle_225" type="type_0" route="route_5" depart="825" color="0,1,0"/>
    <vehicle id="vehicle_226" type="type_0" route="route_0" depart="826" color="0,1,0"/>
    <vehicle id="vehicle_227" type="type_0" route="route_0" depart="846" color="0,1,0"/>
    <vehicle id="vehicle_228" type="type_0" route="route_5" depart="851" color="0,1,0"/>
    <vehicle id="vehicle_229" type="type_0" route="route_7" depart="853" color="0,1,0"/>
    <vehicle id="vehicle_230" type="type_0" route="route_6" depart="854" color="0,1,0"/>
    <vehicle id="vehicle_231" type="type_0" route="route_5" depart="856" color="0,1,0"/>
    <vehicle id="vehicle_232" type="type_0" route="route_6" depart="856" color="0,1,0"/>
    <vehicle id="vehicle_233" type="type_0" route="route_5" depart="862" color="0,1,0"/>
    <vehicle id="vehicle_234" type="type_0" route="route_2" depart="874" color="0,1,0"/>
    <vehicle id="vehicle_235" type="type_0" route="route_2" depart="882" color="0,1,0"/>
    <vehicle id="vehicle_236" type="type_0" route="route_6" depart="883" color="0,1,0"/>
    <vehicle id="vehicle_237" type="type_0" route="route_2" depart="885" color="0,1,0"/>
    <vehicle id="vehicle_238" type="type_0" route="route_3" depart="889" color="0,1,0"/>
    <vehicle id="vehicle_239" type="type_0" route="route_2" depart="893" color="0,1,0"/>
    <vehicle id="vehicle_240" type="type_0" route="route_5" depart="895" color="0,1,0"/>
    <vehicle id="vehicle_241" type="type_0" route="route_4" depart="900" color="0,1,0"/>
    <vehicle id="vehicle_242" type="type_0" route="route_0" depart="903" color="0,1,0"/>
    <vehicle id="vehicle_243" type="type_0" route="route_5" depart="911" color="0,1,0"/>
    <vehicle id="vehicle_244" type="type_0" route="route_3" depart="916" color="0,1,0"/>
    <vehicle id="vehicle_245" type="type_0" route="route_2" depart="921" color="0,1,0"/>
    <vehicle id="vehicle_246" type="type_0" route="route_3" depart="922" color="0,1,0"/>
    <vehicle id="vehicle_247" type="type_0" route="route_0" depart="925" color="0,1,0"/>
    <vehicle id="vehicle_248" type="type_0" route="route_4" depart="926" color="0,1,0"/>
    <vehicle id="vehicle_249" type="type_0" route="route_3" depart="930" color="0,1,0"/>
    <vehicle id="vehicle_250" type="type_0" route="route_1" depart="932" color="0,1,0"/>
    <vehicle id="vehicle_251" type="type_0" route="route_0" depart="940" color="0,1,0"/>
    <vehicle id="vehicle_252" type="type_0" route="route_3" depart="940" color="0,1,0"/>
    <vehicle id="vehicle_253" type="type_0" route="route_3" depart="942" color="0,1,0"/>
    <vehicle id="vehicle_254" type="type_0" route="route_1" depart="943" color="0,1,0"/>
    <vehicle id="vehicle_255" type="type_0" route="route_6" depart="949" color="0,1,0"/>
    <vehicle id="vehicle_256" type="type_0" route="route_7" depart="950" color="0,1,0"/>
    <vehicle id="vehicle_257" type="type_0" route="route_7" depart="952" color="0,1,0"/>
    <vehicle id="vehicle_258" type="type_0" route="route_2" depart="958" color="0,1,0"/>
    <vehicle id="vehicle_259" type="type_0" route="route_4" depart="959" color="0,1,0"/>
    <vehicle id="vehicle_260" type="type_0" route="route_7" depart="959" color="0,1,0"/>
    <vehicle id="vehicle_261" type="type_0" route="route_3" depart="960" color="0,1,0"/>
    <vehicle id="vehicle_262" type="type_0" route="route_2" depart="967" color="0,1,0"/>
    <vehicle id="vehicle_263" type="type_0" route="route_2" depart="980" color="0,1,0"/>
    <vehicle id="vehicle_264" type="type_0" route="route_0" depart="981" color="0,1,0"/>
    <vehicle id="vehicle_265" type="type_0" route="route_2" depart="985" color="0,1,0"/>
    <vehicle id="vehicle_266" type="type_0" route="route_5" depart="992" color="0,1,0"/>
    <vehicle id="vehicle_267" type="type_0" route="route_5" depart="1020" color="0,1,0"/>
    <vehicle id="vehicle_268" type="type_0" route="route_2" depart="1021" color="0,1,0"/>
    <vehicle id="vehicle_269" type="type_0" route="route_7" depart="1022" color="0,1,0"/>
    <vehicle id="vehicle_270" type="type_0" route="route_3" depart="1023" color="0,1,0"/>
    <vehicle id="vehicle_271" type="type_0" route="route_7" depart="1023" color="0,1,0"/>
    <vehicle id="vehicle_272" type="type_0" route="route_7" depart="1033" color="0,1,0"/>
    <vehicle id="vehicle_273" type="type_0" route="route_0" depart="1034" color="0,1,0"/>
    <vehicle id="vehicle_274" type="type_0" route="route_4" depart="1040" color="0,1,0"/>
    <vehicle id="vehicle_275" type="type_0" route="route_4" depart="1044" color="0,1,0"/>
    <vehicle id="vehicle_276" type="type_0" route="route_4" depart="1047" color="0,1,0"/>
    <vehicle id="vehicle_277" type="type_0" route="route_4" depart="1050" color="0,1,0"/>
    <vehicle id="vehicle_278" type="type_0" route="route_2" depart="1052" color="0,1,0"/>
    <vehicle id="vehicle_279" type="type_0" route="route_2" depart="1061" color="0,1,0"/>
    <vehicle id="vehicle_280" type="type_0" route="route_7" depart="1065" color="0,1,0"/>
    <vehicle id="vehicle_281" type="type_0" route="route_3" depart="1073" color="0,1,0"/>
    <vehicle id="vehicle_282" type="type_0" route="route_4" depart="1074" color="0,1,0"/>
    <vehicle id="vehicle_283" type="type_0" route="route_3" depart="1079" color="0,1,0"/>
    <vehicle id="vehicle_284" type="type_0" route="route_2" depart="1088" color="0,1,0"/>
    <vehicle id="vehicle_285" type="type_0" route="route_3" depart="1088" color="0,1,0"/>
    <vehicle id="vehicle_286" type="type_0" route="route_7" depart="1102" color="0,1,0"/>
    <vehicle id="vehicle_287" type="type_0" route="route_4" depart="1104" color="0,1,0"/>
    <vehicle id="vehicle_288" type="type_0" route="route_4" depart="1106" color="0,1,0"/>
    <vehicle id="vehicle_289" type="type_0" route="route_2" depart="1108" color="0,1,0"/>
    <vehicle id="vehicle_290" type="type_0" route="route_6" depart="1115" color="0,1,0"/>
    <vehicle id="vehicle_291" type="type_0" route="route_6" depart="1116" color="0,1,0"/>
    <vehicle id="vehicle_292" type="type_0" route="route_0" depart="1117" color="0,1,0"/>
    <vehicle id="vehicle_293" type="type_0" route="route_2" depart="1117" color="0,1,0"/>
    <vehicle id="vehicle_294" type="type_0" route="route_4" depart="1122" color="0,1,0"/>
    <vehicle id="vehicle_295" type="type_0" route="route_2" depart="1126" color="0,1,0"/>
    <vehicle id="vehicle_296" type="type_0" route="route_1" depart="1137" color="0,1,0"/>
    <vehicle id="vehicle_297" type="type_0" route="route_0" depart="1147" color="0,1,0"/>
    <vehicle id="vehicle_298" type="type_0" route="route_0" depart="1148" color="0,1,0"/>
    <vehicle id="vehicle_299" type="type_0" route="route_0" depart="1150" color="0,1,0"/>
    <vehicle id="vehicle_300" type="type_0" route="route_2" depart="1150" color="0,1,0"/>
    <vehicle id="vehicle_301" type="type_0" route="route_5" depart="1150" color="0,1,0"/>
    <vehicle id="vehicle_302" type="type_0" route="route_1" depart="1153" color="0,1,0"/>
    <vehicle id="vehicle_303" type="type_0" route="route_3" depart="1158" color="0,1,0"/>
    <vehicle id="vehicle_304" type="type_0" route="route_7" depart="1158" color="0,1,0"/>
    <vehicle id="vehicle_305" type="type_0" route="route_6" depart="1160" color="0,1,0"/>
    <vehicle id="vehicle_306" type="type_0" route="route_4" depart="1162" color="0,1,0"/>
    <vehicle id="vehicle_307" type="type_0" route="route_7" depart="1162" color="0,1,0"/>
    <vehicle id="vehicle_308" type="type_0" route="route_6" depart="1164" color="0,1,0"/>
    <vehicle id="vehicle_309" type="type_0" route="route_4" depart="1173" color="0,1,0"/>
    <vehicle id="vehicle_310" type="type_0" route="route_5" depart="1173" color="0,1,0"/>
    <vehicle id="vehicle_311" type="type_0" route="route_3" depart="1184" color="0,1,0"/>
    <vehicle id="vehicle_312" type="type_0" route="route_3" depart="1191" color="0,1,0"/>
    <vehicle id="vehicle_313" type="type_0" route="route_3" depart="1199" color="0,1,0"/>
</routes>
